Version 4
SHEET 1 880 752
WIRE 352 224 336 224
WIRE 464 224 432 224
WIRE 144 304 80 304
WIRE 160 304 144 304
WIRE 176 304 160 304
WIRE 240 304 224 304
WIRE 336 304 336 224
WIRE 336 304 320 304
WIRE 368 304 336 304
WIRE 464 320 464 224
WIRE 464 320 432 320
WIRE 496 320 464 320
WIRE 144 336 144 304
WIRE 368 336 336 336
WIRE 144 432 144 416
WIRE 336 432 336 336
WIRE 0 0 0 0
FLAG 336 432 0
FLAG 144 432 0
FLAG 496 320 Vout
IOPIN 496 320 Out
FLAG 80 304 Vin
IOPIN 80 304 In
SYMBOL res 336 288 R90
WINDOW 0 0 56 VBottom 2
WINDOW 3 44 56 Invisible 2
SYMATTR InstName R1
SYMATTR Value 100
SYMATTR SpiceLine tol=1 pwr=0.1
SYMBOL OpAmps\\opamp 400 256 R0
SYMATTR InstName U1
SYMBOL polcap 224 288 R90
WINDOW 0 0 32 VBottom 2
WINDOW 3 32 32 Invisible 2
SYMATTR InstName C1
SYMATTR Value 6.37µ
SYMATTR SpiceLine Irms=0
SYMATTR Description Capacitor
SYMATTR Type cap
SYMBOL res 448 208 R90
WINDOW 0 0 56 VBottom 2
WINDOW 3 32 56 Invisible 2
SYMATTR InstName R2
SYMATTR Value 100
SYMATTR SpiceLine tol=1 pwr=0.1
SYMBOL voltage 144 320 R0
WINDOW 3 -524 -42 Left 2
WINDOW 123 -524 -14 Left 2
WINDOW 39 0 0 Left 0
SYMATTR Value SINE(0 5 1000)
SYMATTR Value2 AC 1
SYMATTR InstName V1
TEXT -384 128 Left 2 !.lib opamp.sub
TEXT -384 192 Left 2 !;tran 10ms
TEXT -384 456 Left 2 !;tran 10ms
TEXT -384 336 Left 2 !.ac dec 10000 1 10000
